<?xml version="1.0" encoding="UTF-8"?>

<!-- generated on 2026-06-11 19:55:35.473332 by randomTrips.py UNKNOWN
<configuration>
    <net-file value="sf.net.xml"/>
    <output-trip-file value="trips_high.trips.xml"/>
    <trip-attributes value="departLane=&quot;best&quot; departSpeed=&quot;max&quot;"/>
    <vehicle-class value="passenger"/>
    <fringe-factor value="3"/>
    <validate value="True"/>
    <end value="1200.0"/>
    <period value="0.8"/>
</configuration>
-->

<!-- generated on 2026-06-11 19:55:35 by Eclipse SUMO duarouter Version 1.20.0
<configuration xmlns:xsi="http://www.w3.org/2001/XMLSchema-instance" xsi:noNamespaceSchemaLocation="http://sumo.dlr.de/xsd/duarouterConfiguration.xsd">

    <input>
        <net-file value="sf.net.xml"/>
        <route-files value="trips_high.trips.xml"/>
    </input>

    <output>
        <output-file value="routes.rou.xml"/>
        <alternatives-output value="NUL"/>
    </output>

    <time>
        <begin value="0.0"/>
        <end value="1200.0"/>
    </time>

    <report>
        <no-warnings value="true"/>
        <ignore-errors value="true"/>
        <no-step-log value="true"/>
    </report>

</configuration>
-->

<routes xmlns:xsi="http://www.w3.org/2001/XMLSchema-instance" xsi:noNamespaceSchemaLocation="http://sumo.dlr.de/xsd/routes_file.xsd">
    <vType id="passenger" vClass="passenger"/>
    <vehicle id="0" type="passenger" depart="0.00" departLane="best" departSpeed="max">
        <route edges="417396753#0 1122010074#0 8920077#0 -8919616#1 254299117#1 -417396753#1 -397094803 -88559661#2 1110470602#0 225518512#0 1110470601#0 680820468 467979192 1426767839#0 1426767839#1 1349027889#0 88559691 1349027888#0 1349027888#2 633791725#0 88572948#2 8917804#4 -1349027888#1 -88559691 -1349027889#1"/>
    </vehicle>
    <vehicle id="1" type="passenger" depart="0.80" departLane="best" departSpeed="max">
        <route edges="-8920728#1 1426767839#0 1426767839#1 1349027889#0 417400728#0 850228676#0 706532925#0 417400734#0 397144265#0 1111450276 1021093206#0"/>
    </vehicle>
    <vehicle id="2" type="passenger" depart="1.60" departLane="best" departSpeed="max">
        <route edges="619027325 27397919 397108538#0 -364480069#1 -682743470#1 -682727088#1 406582226#0 514169456 468201424#0"/>
    </vehicle>
    <vehicle id="4" type="passenger" depart="3.20" departLane="best" departSpeed="max">
        <route edges="225719777 133755922 8920734#0 224316527#0 254971068#0 254396719#0 254756526#0 1305214853#0 254971069#0 25372358#0 425516652#0 224384020#0 224384020#2 -1453719273#2"/>
    </vehicle>
    <vehicle id="5" type="passenger" depart="4.00" departLane="best" departSpeed="max">
        <route edges="-88559661#2 88559702#0 850242477#1 850242477#7 254299142#0 989329938#0 397104880 1166095110#0 1166095110#2 397144265#0 1111450276 1021093206#0 111552058#0 111552058#2 255330068#0 204884397#0 228201785#0 619979111#0 772972816 619979101 365816000#0 739669067#0 772766540 30832507#0"/>
    </vehicle>
    <vehicle id="6" type="passenger" depart="4.80" departLane="best" departSpeed="max">
        <route edges="-1236509217 -406581247#1 -290052331#2 513701211#0 513701210 290052332#0 981636499#0 144489136#0 -204884397#1 -228196396#1 619979116#0 -224384019#3 -417101702#1 -88597577#2 -88597577#1 -736359897#1 -736359898 -633791726 -1349027888#3 -1349027888#1 -88559691 -1349027889#1 -1426767839#1 -1426767839#0 -467979192 -680820468 -1110470601#1 -225518512#2 -1110470602#1 397094802#0 397094803 417396753#0 1122010074#0 1122010074#2 88559680#0 -8919076#2"/>
    </vehicle>
    <vehicle id="7" type="passenger" depart="5.60" departLane="best" departSpeed="max">
        <route edges="425516616#1 1041363480 1041363479#0 1041363479#1 513676821 91182060#0 8916867#0 425516645 1061779494 425516649#0 287958607#0 1112996372 706543479#0 513676825#0 706543478#0 133733590 8918656#0 8918656#2 328876704 736374827#0 88572948#0 88572948#2 88572948#3 706532925#0 417400734#0 406944765 406944767#0 397145821#0 934261704#0 934261704#1 397145255"/>
    </vehicle>
    <vehicle id="8" type="passenger" depart="6.40" departLane="best" departSpeed="max">
        <route edges="-88559669#3 -1120283629#1 -1120283630 -88572965#1 111552058#0 111552058#2 255330068#0 88597544#0 417166168#0 770023605#0 224316520#0 254297759#0 397269729 408575054 397269730#0 287958606#5 414948593#0"/>
    </vehicle>
    <vehicle id="9" type="passenger" depart="7.20" departLane="best" departSpeed="max">
        <route edges="706527718#0 706527718#4 425516630#0 425516635#0 1483125884#0 1483125884#1 417101710#0 417101709#0 -1494651674#1 27054205#0 417099344#0 8916867#0 425516645 1061779494 425516649#0 287958607#0 1112996372 706543479#0 513676825#0 706543478#0 133733590 8918656#0 8918656#2 328876704 736374827#0 -1120283629#1"/>
    </vehicle>
    <vehicle id="10" type="passenger" depart="8.00" departLane="best" departSpeed="max">
        <route edges="686153251#0 620169772 254299142#0 989329938#0 397104880 1166095110#0 1166095110#2 397144265#0 1111450276 1021093206#0 111552058#0 111552058#2 255330068#0 -228196396#1 619979116#0 -224384019#3 619979102#0 224384018#0 224200967 619979118#0 -650378689#1 -228186482#1 88597575#0 397146706#0 397146706#5 397146705#0 27398048#2 513729745#0 254756517#0 417101704#0 512984874#0"/>
    </vehicle>
    <vehicle id="11" type="passenger" depart="8.80" departLane="best" departSpeed="max">
        <route edges="1197249028 1360611112 406944761#0 283537644 397104884#0 88559702#0 850242477#1 850242477#7 254299142#0 989329938#0 397104880 1166095110#0 1166095110#2 397144265#0 1111450276 1021093206#0 111552058#0 111552058#2 255330068#0 88597544#0 144489134#0 144489134#3 1030287469#0 746808414 513701212#0 406581247#0 1236509217 746808402#0 -84654238#1"/>
    </vehicle>
    <vehicle id="13" type="passenger" depart="10.40" departLane="best" departSpeed="max">
        <route edges="-287958606#4 -254396709#3 -254396709#1 -1126161509#2 -254466686#4 -254466686#1 619378866#0 88597563#0 417099304 397150140 417099307#0 256400244#0 619378852 242940298 -397148934#1"/>
    </vehicle>
    <vehicle id="14" type="passenger" depart="11.20" departLane="best" departSpeed="max">
        <route edges="780006784#0 598020856#0 513676822#0 27054196#0 417099340#0 397094227#0 416878321#0 416878321#4 416878321#7 416878321#8"/>
    </vehicle>
    <vehicle id="15" type="passenger" depart="12.00" departLane="best" departSpeed="max">
        <route edges="686153251#0 620169772 -850242477#10 -850242477#6 -850242477#0 1110470602#0 225518512#0 1110470601#0 513702905#0 1120134470#0 513702901#0 549859218#0"/>
    </vehicle>
    <vehicle id="16" type="passenger" depart="12.80" departLane="best" departSpeed="max">
        <route edges="328876706#2 111552058#2 255330068#0 -228196396#1 619979116#0 -224384019#3 619979102#0 224384018#0 224200967 619979118#0 -650378689#1 -228186482#1 88597575#0 397146706#0 -254466686#1 -8916375#2 28319343#0 254756521#0 1168164483#0 27146036#0 8922026#0"/>
    </vehicle>
    <vehicle id="17" type="passenger" depart="13.60" departLane="best" departSpeed="max">
        <route edges="1466871688#0 461084154#0 461084154#4 1041363479#0 1041363479#1 513676821 91182060#0 8916867#0 425516645 1061779494 425516649#0 287958607#0 254466695#0 397146707#0"/>
    </vehicle>
    <vehicle id="18" type="passenger" depart="14.40" departLane="best" departSpeed="max">
        <route edges="737711008 737711007 397146706#0 254466686#2 1126161509#0 254396709#0 254396709#2 287958606#0 224316521#0 425516647#0 406944780 91182062#0 91182062#3 417099335#0 417099340#0 1483125884#1 417101710#0"/>
    </vehicle>
    <vehicle id="20" type="passenger" depart="16.00" departLane="best" departSpeed="max">
        <route edges="513676826 425624293#0 28841123#0 224316522#0 133733590 -224384019#3 -417101702#1 -88597577#2 -88597577#1 -736359897#1 -736359898 -633791726 -1349027888#3 -1349027888#1 -88559691 -1349027889#1 -1426767839#1 -1426767839#0 -467979192 -680820468 -1110470601#1 -225518512#2"/>
    </vehicle>
    <vehicle id="21" type="passenger" depart="16.80" departLane="best" departSpeed="max">
        <route edges="-88572877#2 -88572877#0 -417101712#1 -682814468#1 -680955153 -88572970#1 88572881#0 397153595#0 88597575#0 397146706#0 254466686#2 1126161509#0"/>
    </vehicle>
    <vehicle id="22" type="passenger" depart="17.60" departLane="best" departSpeed="max">
        <route edges="-254756526#1 254756525#0 254756525#2 254756525#3 1061779494 425516649#0 287958607#0 1112996372 706543479#0 513676825#0 706543478#0 133733590 204884387#0 619979115 619979095#0 204884397#0 228201785#0 619979111#0 772972816 619979101 619979109#0 688508137#0 85789166#0 85789166#1 88572895#0 1037057864#0"/>
    </vehicle>
    <vehicle id="23" type="passenger" depart="18.40" departLane="best" departSpeed="max">
        <route edges="-29059461#2 -254971056#3 417101709#0 -1494651674#1 27054205#0 417099344#0 8916867#0 425516645 1061779494 425516649#0 287958607#0 1112996372 706543479#0 513676825#0 706543478#0 133733590 8918656#0 8918656#2 328876704 736374827#0 88572948#0 88572948#2 88572948#3 706532925#0 417400734#0 397144265#0 1111450276 1021093206#0 88572965#0 1120283630"/>
    </vehicle>
    <vehicle id="24" type="passenger" depart="19.20" departLane="best" departSpeed="max">
        <route edges="417101722#0 32931798#0 262943781#0 417101704#0 224199018#0 224199018#5 224199018#8 1030276936#0 254756525#0 254756525#2 254756525#3 1061779494 425516649#0 287958607#0 1112996372 706543479#0 513676825#0 706543478#0 133733590 204884387#0 619979115 619979095#0 204884397#0"/>
    </vehicle>
    <vehicle id="25" type="passenger" depart="20.00" departLane="best" departSpeed="max">
        <route edges="1426767839#1 1349027889#0 417400728#0 850228676#0 706532925#0 8919328#0 736367667#0 736367665#0 1051856606#0 850242477#7 25758528#0 -8920242#1"/>
    </vehicle>
    <vehicle id="26" type="passenger" depart="20.80" departLane="best" departSpeed="max">
        <route edges="-8920077#3 -8920077#2 -1122010074#1 -417396753#1 -397094803 8919405#0 1059508735 1378950381 620169772 254299142#0 989329938#0 397104880 1166095110#0 1166095110#2 397144265#0 1111450276 1021093206#0 111552058#0 111552058#2 255330068#0 -228196396#1 619979116#0 -224384019#3 619979102#0 224384018#0 224200967 619979118#0 1076419799#0 8919020#0"/>
    </vehicle>
    <vehicle id="27" type="passenger" depart="21.60" departLane="best" departSpeed="max">
        <route edges="425516615 1483073238#0 28843615#0 461084154#0 461084154#4 1041363479#0 1041363479#1 513676821 91182062#0 91182062#3 417099335#0"/>
    </vehicle>
    <vehicle id="28" type="passenger" depart="22.40" departLane="best" departSpeed="max">
        <route edges="-513703278#2 -468204140#1 364480069#0 397108532 513703277 397148932#0 47172745#0 91181770#0 91181770#2 408600295#0 549859218#0"/>
    </vehicle>
    <vehicle id="29" type="passenger" depart="23.20" departLane="best" departSpeed="max">
        <route edges="-47172679#2 1426767839#1 1349027889#0 88559691 1349027888#0 1349027888#2 633791726 736359898 736359897#0 -88572877#5 -88572877#2 -88572877#0 -417101712#1 -682814468#1 -680955153 -88572970#1 -256400251#2 408575055#0 397152177#0 224373753#0"/>
    </vehicle>
    <vehicle id="30" type="passenger" depart="24.00" departLane="best" departSpeed="max">
        <route edges="91182062#3 417099335#0 417099340#0 1483125884#1 417101710#0 417101709#0 -1494651674#1 27054205#0 417099344#0 8916867#0 425516645 425516648#0 425516646 425516616#0"/>
    </vehicle>
    <vehicle id="31" type="passenger" depart="24.80" departLane="best" departSpeed="max">
        <route edges="397094803 417396753#0 1122010074#0 8920077#0 -8919616#1 254299117#1 -417396753#1 -397094803 8919405#0 1059508735 1378950381 620169772 254299142#0 989329938#0 397104880 1166095110#0 1166095110#2 397144265#0 1111450276 1021093206#0 111552058#0 -328876706#4 47172305#1"/>
    </vehicle>
    <vehicle id="32" type="passenger" depart="25.60" departLane="best" departSpeed="max">
        <route edges="772972816 619979110#0 -619979111#1 -228201785#2 -204884397#1 -228196396#1 619979116#0 -224384019#3 619979102#0 224384018#0 224200967 619979118#0 1076419799#0 8919020#0 8919020#1 417101701#0 -682814468#1 -680955153 -88572970#1 -256400251#2 408575055#0 120256349#0 680243314#0 680402685#0 620728120#0 673970959#0"/>
    </vehicle>
    <vehicle id="33" type="passenger" depart="26.40" departLane="best" departSpeed="max">
        <route edges="-88572877#5 -88572877#2 -88572877#0 -417101712#1 -682814468#1 -680955153 -88572970#1 88572881#0 397153595#0 88597575#0 397146706#0 254466686#2 1126161509#0 254396709#0 254396709#2 287958606#0 224316521#0 425516647#0 406944780 91182062#0 91182062#3 417099335#0 417099340#0 1483125884#1 417101710#0 417101709#0 -1494651674#1"/>
    </vehicle>
    <vehicle id="34" type="passenger" depart="27.20" departLane="best" departSpeed="max">
        <route edges="1088396022#0 680820468 467979192 1426767839#0 1426767839#1 1349027889#0 417400728#0 850228676#0 706532925#0 417400734#0 397144265#0 1111450276"/>
    </vehicle>
    <vehicle id="35" type="passenger" depart="28.00" departLane="best" departSpeed="max">
        <route edges="-850242477#6 -850242477#0 397094802#0 8919405#0 1059508735 1378950381 620169772 254299142#0 989329938#0 397104880 1166095110#0 1166095110#2 397144265#0 1111450276 1021093206#0 111552058#0 111552058#2 255330068#0 88597544#0 417166168#0 770023605#0 224316520#0 254297759#0 397269729 408575054 397269730#0 224316521#0 425516647#0 406944780 91182062#0 91182062#3 417099335#0 262943780#0 425516640#0 8919215#0"/>
    </vehicle>
    <vehicle id="37" type="passenger" depart="29.60" departLane="best" departSpeed="max">
        <route edges="425516635#0 1483125884#0 1483125884#1 417101710#0 417101709#0 -1494651674#1 27054205#0 417099344#0 8916867#0 425516645 1061779494 425516649#0 -254396709#3 -254396709#1 -1126161509#2 -254466686#4 -254466686#1 619378866#0 202317711#0 228186482#0"/>
    </vehicle>
    <vehicle id="38" type="passenger" depart="30.40" departLane="best" departSpeed="max">
        <route edges="8916929#0 122498865#0 -88572932#1 -721726242#2 -85789166#0 -1215824145 -365816000#1 -619979101 -225806043#1 -619979111#1 -228201785#2 -204884397#1 -228196396#1 619979116#0 -224384019#3 619979102#0 224384018#0 224200967 619979118#0 1076419799#0 8919020#0 8919020#1 417101701#0 -682814468#1 -680955153 -88572970#1 -256400251#2 408575055#0 120256349#0 680243314#0 680402685#0 -397153598#1 27397934#0"/>
    </vehicle>
    <vehicle id="39" type="passenger" depart="31.20" departLane="best" departSpeed="max">
        <route edges="-8920077#2 -1122010074#1 -417396753#1 -397094803 -88559661#2 1110470602#0 225518512#0 1110470601#0 680820468 467979192 1426767839#0 1426767839#1 1349027889#0 88559691 1349027888#0 1349027888#2 47172460#0 175507524#0 406944764#0 406944764#0-AddedOffRampEdge 1051004023"/>
    </vehicle>
    <vehicle id="40" type="passenger" depart="32.00" departLane="best" departSpeed="max">
        <route edges="397104883 254299117#1 -417396753#1 -397094803 8919405#0 1059508735 1378950381 620169772 254299142#0 989329938#0 397104880 1166095110#0 1166095110#2 406944765 406944767#0 1040509548#0 1081219359#0 1081219360"/>
    </vehicle>
    <vehicle id="41" type="passenger" depart="32.80" departLane="best" departSpeed="max">
        <route edges="397148933 397148934#0 225432462#0 1120512099#0 47172745#0 406944764#0 406944764#0-AddedOffRampEdge 1349027887#0 1349027888#0 1349027888#2 633791725#0 88572948#2"/>
    </vehicle>
    <vehicle id="42" type="passenger" depart="33.60" departLane="best" departSpeed="max">
        <route edges="224199013#0 512984875#0 8916375#0 417099330#0 254466686#2 1126161509#0 -254971068#3 -224316527#2 -945294696#1"/>
    </vehicle>
    <vehicle id="43" type="passenger" depart="34.40" departLane="best" departSpeed="max">
        <route edges="989329938#0 255168046#0 617990574 1111974546#0 736367666#0 1088396022#0 680820468 467979192 8920728#0 736592136#0 408600295#0 549859218#0 468204139#0 468204140#0 324914568#0"/>
    </vehicle>
    <vehicle id="44" type="passenger" depart="35.20" departLane="best" departSpeed="max">
        <route edges="-28231602#5 581126715#0 797750843#0 48211230#0 850158700#0 598020856#0 513676822#0 27054205#0 417099344#0 8916867#0 425516645 1061779494 425516649#0 287958607#0 1112996372 706543479#0 513676825#0 706543478#0 133733590 -224384019#3 619979102#0 224384018#0 224200967 -225719777"/>
    </vehicle>
    <vehicle id="45" type="passenger" depart="36.00" departLane="best" departSpeed="max">
        <route edges="-365566079#1 468204139#0 364480069#0 397108532 513703277 397148932#0 47172745#0 406944764#0 406944764#0-AddedOffRampEdge 1051004023 417400728#0 850228676#0 706532925#0 417400734#0 397144265#0 1111450276 1021093206#0 111552058#0 111552058#2 255330068#0 204884397#0 228201785#0 619979111#0 772972816 619979101 365816000#0 225806042#0 417264575#0"/>
    </vehicle>
    <vehicle id="46" type="passenger" depart="36.80" departLane="best" departSpeed="max">
        <route edges="680402686 160325571#0 680402690#0 27571801#0 -680402685#1 -680243314#1 -680402691 397152177#0 512984875#0 28319343#0 224199018#0 224199018#5 224199018#8 1030276936#0 254756525#0 254756525#2"/>
    </vehicle>
    <vehicle id="47" type="passenger" depart="37.60" departLane="best" departSpeed="max">
        <route edges="-224384019#3 619979102#0 619979117#0 224384019#0"/>
    </vehicle>
    <vehicle id="48" type="passenger" depart="38.40" departLane="best" departSpeed="max">
        <route edges="981636499#0 144489136#0 -204884397#1 -228196396#1 619979116#0 -224384019#3 -417101702#1 -88597577#2 -88597577#1 -736359897#1 -736359898 -633791726 -1349027888#3 -1349027888#1 -88559691 -1349027889#1 -1426767839#1 -1426767839#0 -467979192 -680820468 -1110470601#1 -225518512#2 -1110470602#1 397094802#0"/>
    </vehicle>
    <vehicle id="50" type="passenger" depart="40.00" departLane="best" departSpeed="max">
        <route edges="-1120512099#2 -225432462#1 -397148934#1 -397148933 -1349027885 99231463 397152177#0 512984875#0 28319343#0 224199018#0 224199018#5 397146705#0 27398048#2 513729745#0"/>
    </vehicle>
    <vehicle id="51" type="passenger" depart="40.80" departLane="best" departSpeed="max">
        <route edges="468204140#0 513703278#0 468204142 468205098#0 397267323 99231475#0 397148933 397148934#0 225432462#0 1120512099#0 47172745#0 91181770#0 91181770#2 408600295#0 513707472#0 513707467 468201422#0 468201422#1 514170580#0 513703884#0 283537644 397104884#0"/>
    </vehicle>
    <vehicle id="52" type="passenger" depart="41.60" departLane="best" departSpeed="max">
        <route edges="-8920077#3 -8920077#2 -1122010074#1 -417396753#1 -397094803 8919405#0 1059508735 1378950381 620169772 254299142#0 989329938#0 397104880 1166095110#0 1166095110#2 397144265#0 1111450276 1021093206#0 111552058#0 111552058#2 255330068#0 88597544#0 417166168#0 770023605#0 224316520#0 254297759#0 397269729 408575054 397269730#0 224316521#0 425516647#0 26769761#4 425516616#1"/>
    </vehicle>
    <vehicle id="53" type="passenger" depart="42.40" departLane="best" departSpeed="max">
        <route edges="-365566079#1 468204139#0 364480069#0 397108532 513703277 397148932#0 1349022982#0 -256400251#2 256400244#0"/>
    </vehicle>
    <vehicle id="54" type="passenger" depart="43.20" departLane="best" departSpeed="max">
        <route edges="254756521#0 1168164483#0 27146036#0 780006784#0 598020856#0 25372358#0 425516652#0 224384020#0 8919925"/>
    </vehicle>
    <vehicle id="56" type="passenger" depart="44.80" departLane="best" departSpeed="max">
        <route edges="283534317#0 1053833922 397145820#0 397145821#0 934261704#0 934261704#1 255168047#0 255168047#3 513702332 680820471 1166095110#0 1166095110#2 397144265#0 1111450276 1021093206#0 88572965#0 1120283630 1120283629#0 88559669#0 -88572877#5 -88572877#2"/>
    </vehicle>
    <vehicle id="57" type="passenger" depart="45.60" departLane="best" departSpeed="max">
        <route edges="8916929#0 122498865#0 -88572932#1 -721726242#2 -85789166#0 -1215824145 739669067#0 772766540 30832507#0 30832504#0 1050261012 290052331#0 406581247#0 1236509217 84654238#0 512523366#0 674757887#0 674757886#0 674757885#0 -1201621437#2 -414948593#4 -287958606#9 224316521#0 425516647#0 406944780 91182062#0 91182062#3 417099335#0 417099340#0 397094227#0 681514649#0 -87376703#1 -406580281#1 87376669#0"/>
    </vehicle>
    <vehicle id="58" type="passenger" depart="46.40" departLane="best" departSpeed="max">
        <route edges="1041363479#0 1041363479#1 513676821 91182060#0 8916867#0 425516645 425516648#0 425516646 425516615"/>
    </vehicle>
    <vehicle id="59" type="passenger" depart="47.20" departLane="best" departSpeed="max">
        <route edges="408575055#0 397152177#0 224373753#0 88597563#0 417099304 397150140 417099307#0 256400251#0 88572970#0 680955153 682814468#0 417101712#0 88572877#0 88572877#1 88572877#3 -736359897#1 -736359898"/>
    </vehicle>
    <vehicle id="61" type="passenger" depart="48.80" departLane="best" departSpeed="max">
        <route edges="667569398#0 667569395 417947135 111586257#0 28841123#0 224316522#0 133733590 -224384019#3 -417101702#1 -88597577#2 -88597577#1 -736359897#1 -736359898 -633791726 -1349027888#3 -1349027888#1 -88559691 -1349027889#1 -1426767839#1 -1426767839#0 -467979192 -680820468 -1110470601#1 -225518512#2 -1110470602#1 397094802#0 397094803"/>
    </vehicle>
    <vehicle id="62" type="passenger" depart="49.60" departLane="best" departSpeed="max">
        <route edges="-1068493279 1037057864#0 8917499#0 1053833922 397145820#0 397145821#0 934261704#0 934261704#1 255168047#0 255168047#3 513702332 680820471 521381655#0 617990574 1111974546#0 736367666#0 1088396022#0 680820468 467979192 1426767839#0 1426767839#1 1349027889#0"/>
    </vehicle>
    <vehicle id="63" type="passenger" depart="50.40" departLane="best" departSpeed="max">
        <route edges="-1201621437#2 -414948593#4 -287958606#9 224316521#0 425516647#0 406944780 91182062#0 91182062#3 417099335#0 417099340#0 1483125884#1 417101710#0 417101709#0 425516651#0 425516653#0 850158701#0 47108420#0 8918369#0"/>
    </vehicle>
    <vehicle id="65" type="passenger" depart="52.00" departLane="best" departSpeed="max">
        <route edges="1052676448 779123577#0 513676820#0 224316527#0 254971068#0 -1126161509#2 -254466686#4 -254466686#1"/>
    </vehicle>
    <vehicle id="66" type="passenger" depart="52.80" departLane="best" departSpeed="max">
        <route edges="88463831#0 27571801#0 -680402685#1 -680243314#1 -680402691 -111560682#2 256400251#0 88572970#0 680955153 682814468#0 417101700#0 175507524#0 91181770#0 8919606#0"/>
    </vehicle>
    <vehicle id="67" type="passenger" depart="53.60" departLane="best" departSpeed="max">
        <route edges="-27398032#3 468204142 468205098#0 397267323 99231463 397152177#0 512984875#0 8916375#0 417099330#0 254466686#2 1126161509#0 254396709#0 254396709#2 287958606#0 287958606#5 414948593#0 -28841115#8 329596844#3 674757877#0 674757880#0 1459358940#0 28841115#0"/>
    </vehicle>
    <vehicle id="68" type="passenger" depart="54.40" departLane="best" departSpeed="max">
        <route edges="-225806042#1 -365816000#1 -619979101 -225806043#1 -619979111#1 -228201785#2 -204884397#1 -228196396#1 619979116#0 -224384019#3 619979102#0 224384018#0 224200967 619979118#0 -650378689#1 -228186482#1 88597575#0 620169771#0 620169771#3"/>
    </vehicle>
    <vehicle id="69" type="passenger" depart="55.20" departLane="best" departSpeed="max">
        <route edges="622297792#0 88463831#0 27571801#0 -680402685#1 -680243314#1 -680402691 397152177#0 512984875#0 8916375#0 417099330#0 254466686#2 1126161509#0 254396709#0 254396709#2 287958607#0 1112996372 706543479#0 513676825#0 706543478#0 133733590 204884387#0 619979115 619979095#0 -228196396#1 -619979114"/>
    </vehicle>
    <vehicle id="70" type="passenger" depart="56.00" departLane="best" departSpeed="max">
        <route edges="256400244#0 619378852 242940298 -397148934#1 -397148933 -1349027885 99231463 397152177#0 224373753#0 88597553#0 737711009 737711008 737711007 397146706#0"/>
    </vehicle>
    <vehicle id="71" type="passenger" depart="56.80" departLane="best" departSpeed="max">
        <route edges="-8920077#3 -8920077#2 -1122010074#1 -417396753#1 -397094803 8919405#0 1059508735 1378950381 620169772 254299142#0 989329938#0 397104880 1166095110#0 1166095110#2 397144265#0 1111450276 1021093206#0 111552058#0 111552058#2 255330068#0 88597544#0 417166168#0 770023605#0 224316520#0 254297759#0 397269729 408575054 397269730#0 224316521#0 425516647#0 406944780 91182062#0 91182062#3 417099335#0 417099340#0 397094227#0 681514649#0 -87376703#1 -406580281#1 1052630174#0 87376672#0"/>
    </vehicle>
    <vehicle id="72" type="passenger" depart="57.60" departLane="best" departSpeed="max">
        <route edges="225806041 619979108#0 -365816000#1 -619979101 -225806043#1 -619979111#1 -228201785#2 -204884397#1 88597544#0 417166168#0 770023605#0 224316520#0 254297759#0 397269729 408575054 397269730#0 224316521#0 425516647#0 406944780 91182062#0 91182062#3 417099335#0 417099340#0 397094227#0 681514649#0 -87376703#1 -8921325"/>
    </vehicle>
    <vehicle id="73" type="passenger" depart="58.40" departLane="best" departSpeed="max">
        <route edges="329596844#0 28841115#4 -414948593#4 -287958606#9 224316521#0 425516647#0 406944780 91182062#0 91182062#3 417099335#0 417099340#0 1483125884#1 417101710#0 417101709#0 425516651#0 425516653#0 850158701#0 28231602#0 581126715#0"/>
    </vehicle>
    <vehicle id="74" type="passenger" depart="59.20" departLane="best" departSpeed="max">
        <route edges="-721174653#1 28841123#0 224316520#0 254297759#0 397269729 408575054 397269730#0 -287958606#4 -254396709#3 -254396709#1 254396719#0 254756526#0 1305214853#0"/>
    </vehicle>
    <vehicle id="75" type="passenger" depart="60.00" departLane="best" departSpeed="max">
        <route edges="981636498#0 89782522#0 -619979111#1 -228201785#2 -204884397#1 88597544#0 417166168#0 770023605#0 224316520#0 254297759#0 397269729 408575054 397269730#0 224316521#0 425516647#0 406944780 91182062#0 91182062#3 417099335#0 262943780#0 425516640#0"/>
    </vehicle>
    <vehicle id="76" type="passenger" depart="60.80" departLane="best" departSpeed="max">
        <route edges="254299117#1 -417396753#1 -397094803 8919405#0 1059508735 1378950381 620169772 254299142#0 989329938#0 397104880 1166095110#0 1166095110#2 397144265#0 1111450276 1021093206#0 111552058#0 111552058#2 255330068#0 88597544#0 144489134#0 184956229#0 513676826 425624293#0 111586254#0 28841122#0 1041351160 1041351161 329596844#0 329596844#3"/>
    </vehicle>
    <vehicle id="77" type="passenger" depart="61.60" departLane="best" departSpeed="max">
        <route edges="-397146712#1 -397146711 -417099350 8921866 29023785#0 28841117#0 1030276071"/>
    </vehicle>
    <vehicle id="78" type="passenger" depart="62.40" departLane="best" departSpeed="max">
        <route edges="1126161509#0 254396709#0 254396709#2 287958606#0 287958606#5 414948593#0"/>
    </vehicle>
    <vehicle id="80" type="passenger" depart="64.00" departLane="best" departSpeed="max">
        <route edges="-228186482#1 -202317711#2 88597563#0 417099304 397150140 417099307#0 256400251#0 88572970#0 680955153 682814468#0 417101700#0 175507524#0 406944764#0 406944764#0-AddedOffRampEdge 1051004023 417400728#0"/>
    </vehicle>
    <vehicle id="81" type="passenger" depart="64.80" departLane="best" departSpeed="max">
        <route edges="-88572877#5 -88572877#2 -88572877#0 -417101712#1 -682814468#1 -680955153 -88572970#1 88572881#0 397153595#0 88597575#0"/>
    </vehicle>
    <vehicle id="82" type="passenger" depart="65.60" departLane="best" departSpeed="max">
        <route edges="850162147#0 850162148 397140734#0 792350776 408572570 359898521#0 32931798#0 -28843496"/>
    </vehicle>
    <vehicle id="83" type="passenger" depart="66.40" departLane="best" departSpeed="max">
        <route edges="-88597577#2 -88597577#1 -736359897#1 -736359898 -633791726 -1349027888#3 -1349027888#1 -88559691 417400728#0 850228676#0 706532925#0 8919328#0 736367667#0 736367666#0 1088396022#0 680820468 467979192"/>
    </vehicle>
    <vehicle id="84" type="passenger" depart="67.20" departLane="best" departSpeed="max">
        <route edges="-87376682#2 -87376695#2 -397146714#1 -397146709#1 -397146710 -1459358625#1 706527718#4 425516630#0 425516635#0 1483125884#0 1483125884#1 417101710#0 417101709#0 -1494651674#1 27054205#0 417099344#0 8916867#0 425516645 1061779494 425516649#0 -254396709#3 -254396709#1 -1126161509#2 -254466686#4 -254466686#1 619378866#0 88597563#0 417099304 397150140 417099307#0 256400244#0 619378852 242940298 -397148934#1 -397148933 -1349027885 -254971064#1 -673997067"/>
    </vehicle>
    <vehicle id="85" type="passenger" depart="68.00" departLane="best" departSpeed="max">
        <route edges="8919020#1 417101701#0 -682814468#1 -680955153 -88572970#1 88572881#0 397153595#0 88597575#0 397146706#0 254466686#2 1126161509#0 254396709#0 254396709#2 287958607#0 254466695#0 397269730#0"/>
    </vehicle>
    <vehicle id="86" type="passenger" depart="68.80" departLane="best" departSpeed="max">
        <route edges="255168046#0 617990574 1111974546#0 736367666#0 1088396022#0 680820468 467979192 8920728#0 736592136#0 408600295#0 549859218#0 468204139#0 468204140#0 513703278#0 468204142 468205098#0 397267323 99231463 120256349#0 680243314#0 680402685#0 -397153598#1 -88463831#3 88463827#0 677165867"/>
    </vehicle>
    <vehicle id="87" type="passenger" depart="69.60" departLane="best" departSpeed="max">
        <route edges="686153251#0 620169772 -850242477#10 -850242477#6 -850242477#0 397094802#0 397094803 417396753#0 1122010074#0 1122010074#2 88559680#0 88559680#1 88559680#3 -8918841#2"/>
    </vehicle>
    <vehicle id="88" type="passenger" depart="70.40" departLane="best" departSpeed="max">