<?xml version="1.0" encoding="UTF-8"?>

<!-- generated on 2026-06-11 19:54:07 by Eclipse SUMO netconvert Version 1.20.0
<configuration xmlns:xsi="http://www.w3.org/2001/XMLSchema-instance" xsi:noNamespaceSchemaLocation="http://sumo.dlr.de/xsd/netconvertConfiguration.xsd">

    <input>
        <osm-files value="sf.osm.xml"/>
    </input>

    <output>
        <output-file value="sf.net.xml"/>
        <output.street-names value="true"/>
    </output>

    <projection>
        <proj.utm value="true"/>
    </projection>

    <processing>
        <geometry.remove value="true"/>
    </processing>

    <tls_building>
        <tls.discard-simple value="true"/>
        <tls.join value="true"/>
        <tls.guess-signals value="true"/>
    </tls_building>

    <ramp_guessing>
        <ramps.guess value="true"/>
    </ramp_guessing>

    <edge_removal>
        <keep-edges.by-vclass value="passenger"/>
        <remove-edges.by-vclass value="pedestrian,bicycle"/>
    </edge_removal>

    <junctions>
        <no-turnarounds value="true"/>
        <junctions.join value="true"/>
    </junctions>

</configuration>
-->

<net version="1.20" junctionCornerDetail="5" limitTurnSpeed="5.50" xmlns:xsi="http://www.w3.org/2001/XMLSchema-instance" xsi:noNamespaceSchemaLocation="http://sumo.dlr.de/xsd/net_file.xsd">

    <location netOffset="-551618.79,-4181380.44" convBoundary="0.00,0.00,2087.48,2312.15" origBoundary="-122.413743,37.778247,-122.389654,37.807433" projParameter="+proj=utm +zone=10 +ellps=WGS84 +datum=WGS84 +units=m +no_defs"/>

    <type id="highway.living_street" priority="2" numLanes="1" speed="2.78" disallow="tram rail_urban rail rail_electric rail_fast ship container cable_car subway aircraft wheelchair scooter drone" oneway="0"/>
    <type id="highway.motorway" priority="14" numLanes="2" speed="39.44" allow="private emergency authority army vip passenger hov taxi bus coach delivery truck trailer motorcycle evehicle custom1 custom2" oneway="1"/>
    <type id="highway.motorway_link" priority="9" numLanes="1" speed="22.22" allow="private emergency authority army vip passenger hov taxi bus coach delivery truck trailer motorcycle evehicle custom1 custom2" oneway="1"/>
    <type id="highway.primary" priority="12" numLanes="2" speed="27.78" disallow="tram rail_urban rail rail_electric rail_fast ship container cable_car subway aircraft wheelchair scooter drone" oneway="0"/>
    <type id="highway.primary_link" priority="7" numLanes="1" speed="22.22" disallow="tram rail_urban rail rail_electric rail_fast ship container cable_car subway aircraft wheelchair scooter drone" oneway="0"/>
    <type id="highway.residential" priority="3" numLanes="1" speed="13.89" disallow="tram rail_urban rail rail_electric rail_fast ship container cable_car subway aircraft wheelchair scooter drone" oneway="0"/>
    <type id="highway.secondary" priority="11" numLanes="1" speed="27.78" disallow="tram rail_urban rail rail_electric rail_fast ship container cable_car subway aircraft wheelchair scooter drone" oneway="0"/>
    <type id="highway.secondary_link" priority="6" numLanes="1" speed="22.22" disallow="tram rail_urban rail rail_electric rail_fast ship container cable_car subway aircraft wheelchair scooter drone" oneway="0"/>
    <type id="highway.tertiary" priority="10" numLanes="1" speed="22.22" disallow="tram rail_urban rail rail_electric rail_fast ship container cable_car subway aircraft wheelchair scooter drone" oneway="0"/>
    <type id="highway.tertiary_link" priority="5" numLanes="1" speed="22.22" disallow="tram rail_urban rail rail_electric rail_fast ship container cable_car subway aircraft wheelchair scooter drone" oneway="0"/>
    <type id="highway.unclassified" priority="4" numLanes="1" speed="13.89" disallow="tram rail_urban rail rail_electric rail_fast ship container cable_car subway aircraft wheelchair scooter drone" oneway="0"/>

    <edge id=":10158927091_0" function="internal">
        <lane id=":10158927091_0_0" index="0" disallow="tram rail_urban rail rail_electric rail_fast ship container cable_car subway aircraft wheelchair scooter drone" speed="22.22" length="8.41" shape="1533.20,782.30 1531.84,784.41 1531.55,786.28 1531.26,788.15 1529.90,790.26"/>
        <lane id=":10158927091_0_1" index="1" disallow="tram rail_urban rail rail_electric rail_fast ship container cable_car subway aircraft wheelchair scooter drone" speed="22.22" length="8.41" shape="1533.20,782.30 1527.61,788.03"/>
    </edge>
    <edge id=":10158927091_2" function="internal">
        <lane id=":10158927091_2_0" index="0" disallow="tram rail_urban rail rail_electric rail_fast ship container cable_car subway aircraft wheelchair scooter drone" speed="22.22" length="8.00" shape="1525.32,785.79 1530.91,780.07"/>
    </edge>
    <edge id=":10158927092_0" function="internal">
        <lane id=":10158927092_0_0" index="0" disallow="tram rail_urban rail rail_electric rail_fast ship container cable_car subway aircraft wheelchair scooter drone" speed="22.22" length="7.98" shape="1612.40,704.39 1606.60,709.87"/>
    </edge>
    <edge id=":10158927092_1" function="internal">
        <lane id=":10158927092_1_0" index="0" disallow="tram rail_urban rail rail_electric rail_fast ship container cable_car subway aircraft wheelchair scooter drone" speed="22.22" length="8.19" shape="1604.46,707.48 1605.90,705.53 1606.23,703.73 1606.54,701.90 1607.89,699.85"/>
        <lane id=":10158927092_1_1" index="1" disallow="tram rail_urban rail rail_electric rail_fast ship container cable_car subway aircraft wheelchair scooter drone" speed="22.22" length="8.19" shape="1604.46,707.48 1610.15,702.12"/>
    </edge>
    <edge id=":10173130111_0" function="internal">
        <lane id=":10173130111_0_0" index="0" disallow="tram rail_urban rail rail_electric rail_fast ship container cable_car subway aircraft wheelchair scooter drone" speed="8.94" length="8.21" shape="1380.59,689.68 1382.46,691.20 1383.98,691.95 1385.50,692.70 1387.37,694.22"/>
        <lane id=":10173130111_0_1" index="1" disallow="tram rail_urban rail rail_electric rail_fast ship container cable_car subway aircraft wheelchair scooter drone" speed="8.94" length="8.21" shape="1378.33,691.94 1380.20,693.46 1381.72,694.21 1383.24,694.96 1385.11,696.48"/>
        <lane id=":10173130111_0_2" index="2" disallow="tram rail_urban rail rail_electric rail_fast ship container cable_car subway aircraft wheelchair scooter drone" speed="8.94" length="8.21" shape="1376.06,694.20 1377.93,695.72 1379.45,696.47 1380.97,697.21 1382.84,698.74"/>
        <lane id=":10173130111_0_3" index="3" disallow="tram rail_urban rail rail_electric rail_fast ship container cable_car subway aircraft wheelchair scooter drone" speed="8.94" length="8.21" shape="1376.06,694.20 1377.58,696.08 1378.32,697.60 1379.06,699.12 1380.57,700.99"/>
    </edge>
    <edge id=":10246287109_0" function="internal">
        <lane id=":10246287109_0_0" index="0" disallow="tram rail_urban rail rail_electric rail_fast ship container cable_car subway aircraft wheelchair scooter drone" speed="8.94" length="8.53" shape="1069.24,931.89 1067.14,930.52 1065.27,930.22 1063.41,929.93 1061.30,928.55"/>
        <lane id=":10246287109_0_1" index="1" disallow="tram rail_urban rail rail_electric rail_fast ship container cable_car subway aircraft wheelchair scooter drone" speed="8.94" length="8.53" shape="1071.49,929.62 1069.39,928.24 1067.52,927.95 1065.65,927.65 1063.55,926.28"/>
        <lane id=":10246287109_0_2" index="2" disallow="tram rail_urban rail rail_electric rail_fast ship container cable_car subway aircraft wheelchair scooter drone" speed="8.94" length="8.53" shape="1071.49,929.62 1065.80,924.00"/>
    </edge>
    <edge id=":10246287109_3" function="internal">
        <lane id=":10246287109_3_0" index="0" disallow="tram rail_urban rail rail_electric rail_fast ship container cable_car subway aircraft wheelchair scooter drone" speed="8.94" length="8.01" shape="1070.29,919.44 1075.99,925.07"/>
        <lane id=":10246287109_3_1" index="1" disallow="tram rail_urban rail rail_electric rail_fast ship container cable_car subway aircraft wheelchair scooter drone" speed="8.94" length="8.01" shape="1068.05,921.72 1073.74,927.35"/>
    </edge>
    <edge id=":10248388984_0" function="internal">
        <lane id=":10248388984_0_0" index="0" disallow="tram rail_urban rail rail_electric rail_fast ship container cable_car subway aircraft wheelchair scooter drone" speed="11.18" length="8.54" shape="1670.20,1262.17 1668.12,1260.76 1666.26,1260.44 1664.40,1260.11 1662.32,1258.71"/>
        <lane id=":10248388984_0_1" index="1" disallow="tram rail_urban rail rail_electric rail_fast ship container cable_car subway aircraft wheelchair scooter drone" speed="11.18" length="8.54" shape="1672.49,1259.93 1670.40,1258.52 1668.54,1258.20 1666.68,1257.87 1664.60,1256.46"/>
        <lane id=":10248388984_0_2" index="2" disallow="tram rail_urban rail rail_electric rail_fast ship container cable_car subway aircraft wheelchair scooter drone" speed="11.18" length="8.54" shape="1672.49,1259.93 1666.88,1254.22"/>
    </edge>
    <edge id=":10248388984_3" function="internal">
        <lane id=":10248388984_3_0" index="0" disallow="tram rail_urban rail rail_electric rail_fast ship container cable_car subway aircraft wheelchair scooter drone" speed="11.18" length="8.00" shape="1669.16,1251.98 1674.77,1257.68"/>
    </edge>
    <edge id=":10262087039_0" function="internal">
        <lane id=":10262087039_0_0" index="0" disallow="tram rail_urban rail rail_electric rail_fast ship container cable_car subway aircraft wheelchair scooter drone" speed="27.78" length="4.19" shape="1810.16,509.94 1810.12,514.83"/>
        <lane id=":10262087039_0_1" index="1" disallow="tram rail_urban rail rail_electric rail_fast ship container cable_car subway aircraft wheelchair scooter drone" speed="27.78" length="4.19" shape="1810.16,509.94 1807.86,512.57"/>
    </edge>
    <edge id=":10262087039_2" function="internal">
        <lane id=":10262087039_2_0" index="0" disallow="tram rail_urban rail rail_electric rail_fast ship container cable_car subway aircraft wheelchair scooter drone" speed="27.78" length="3.29" shape="1805.60,510.30 1807.76,507.82"/>
    </edge>
    <edge id=":10262087040_0" function="internal">
        <lane id=":10262087040_0_0" index="0" disallow="tram rail_urban rail rail_electric rail_fast ship container cable_car subway aircraft wheelchair scooter drone" speed="27.78" length="8.01" shape="1889.87,430.70 1884.20,436.36"/>
    </edge>
    <edge id=":10262087040_1" function="internal">
        <lane id=":10262087040_1_0" index="0" disallow="tram rail_urban rail rail_electric rail_fast ship container cable_car subway aircraft wheelchair scooter drone" speed="27.78" length="8.40" shape="1881.94,434.09 1883.33,432.00 1883.64,430.14 1883.95,428.28 1885.33,426.18"/>
        <lane id=":10262087040_1_1" index="1" disallow="tram rail_urban rail rail_electric rail_fast ship container cable_car subway aircraft wheelchair scooter drone" speed="27.78" length="8.40" shape="1881.94,434.09 1887.60,428.44"/>
    </edge>
    <edge id=":10266840335_0" function="internal">
        <lane id=":10266840335_0_0" index="0" allow="private emergency authority army vip passenger hov taxi bus coach delivery truck trailer motorcycle evehicle custom1 custom2" speed="22.22" length="8.21" shape="1781.53,772.03 1783.91,771.66 1785.49,771.04 1787.07,770.44 1789.46,770.09"/>
        <lane id=":10266840335_0_1" index="1" allow="private emergency authority army vip passenger hov taxi bus coach delivery truck trailer motorcycle evehicle custom1 custom2" speed="22.22" length="8.21" shape="1781.66,775.23 1784.04,774.86 1785.62,774.24 1787.20,773.63 1789.59,773.29"/>
    </edge>
    <edge id=":10266840336_0" function="internal">
        <lane id=":10266840336_0_0" index="0" allow="private emergency authority army vip passenger hov taxi bus coach delivery truck trailer motorcycle evehicle custom1 custom2" speed="22.22" length="8.21" shape="1829.54,773.97 1831.95,773.91 1833.59,773.49 1835.23,773.07 1837.64,773.01"/>
    </edge>
    <edge id=":1094164250_0" function="internal">
        <lane id=":1094164250_0_0" index="0" disallow="tram rail_urban rail rail_electric rail_fast ship container cable_car subway aircraft wheelchair scooter drone" speed="11.18" length="8.00" shape="1791.04,837.52 1785.41,831.83"/>
        <lane id=":1094164250_0_1" index="1" disallow="tram rail_urban rail rail_electric rail_fast ship container cable_car subway aircraft wheelchair scooter drone" speed="11.18" length="8.00" shape="1793.32,835.27 1787.69,829.58"/>
    </edge>
    <edge id=":1094164250_2" function="internal">
        <lane id=":1094164250_2_0" index="0" disallow="tram rail_urban rail rail_electric rail_fast ship container cable_car subway aircraft wheelchair scooter drone" speed="11.18" length="8.80" shape="1792.25,825.09 1793.62,827.19 1793.92,829.05 1794.22,830.92 1795.59,833.02"/>
    </edge>
    <edge id=":11264937592_0" function="internal">
        <lane id=":11264937592_0_0" index="0" disallow="tram rail_urban rail rail_electric rail_fast ship container cable_car subway aircraft wheelchair scooter drone" speed="22.22" length="8.41" shape="545.57,595.24 544.20,597.35 543.90,599.22 543.60,601.09 542.22,603.20"/>
        <lane id=":11264937592_0_1" index="1" disallow="tram rail_urban rail rail_electric rail_fast ship container cable_car subway aircraft wheelchair scooter drone" speed="22.22" length="8.41" shape="545.57,595.24 539.95,600.95"/>
    </edge>
    <edge id=":11264937592_2" function="internal">
        <lane id=":11264937592_2_0" index="0" disallow="tram rail_urban rail rail_electric rail_fast ship container cable_car subway aircraft wheelchair scooter drone" speed="22.22" length="7.99" shape="535.40,596.45 541.00,590.76"/>
        <lane id=":11264937592_2_1" index="1" disallow="tram rail_urban rail rail_electric rail_fast ship container cable_car subway aircraft wheelchair scooter drone" speed="22.22" length="7.99" shape="537.67,598.70 543.28,593.00"/>
    </edge>
    <edge id=":11481847196_0" function="internal">
        <lane id=":11481847196_0_0" index="0" disallow="tram rail_urban rail rail_electric rail_fast ship container cable_car subway aircraft wheelchair scooter drone" speed="11.18" length="8.00" shape="486.59,1031.03 485.28,1038.92"/>
        <lane id=":11481847196_0_1" index="1" disallow="tram rail_urban rail rail_electric rail_fast ship container cable_car subway aircraft wheelchair scooter drone" speed="11.18" length="8.00" shape="483.43,1030.50 482.12,1038.39"/>
    </edge>
    <edge id=":11481847196_2" function="internal">
        <lane id=":11481847196_2_0" index="0" disallow="tram rail_urban rail rail_electric rail_fast ship container cable_car subway aircraft wheelchair scooter drone" speed="11.18" length="8.40" shape="478.96,1037.87 478.87,1035.36 478.04,1033.66 477.21,1031.96 477.12,1029.45"/>
        <lane id=":11481847196_2_1" index="1" disallow="tram rail_urban rail rail_electric rail_fast ship container cable_car subway aircraft wheelchair scooter drone" speed="11.18" length="8.40" shape="478.96,1037.87 480.27,1029.98"/>
    </edge>
    <edge id=":12433151700_0" function="internal">
        <lane id=":12433151700_0_0" index="0" allow="private emergency authority army vip passenger hov taxi bus coach delivery truck trailer motorcycle evehicle custom1 custom2" speed="22.35" length="0.10" shape="1619.73,553.13 1619.73,553.13"/>
        <lane id=":12433151700_0_1" index="1" allow="private emergency authority army vip passenger hov taxi bus coach delivery truck trailer motorcycle evehicle custom1 custom2" speed="22.35" length="0.10" shape="1621.98,550.86 1621.98,550.86"/>
        <lane id=":12433151700_0_2" index="2" allow="private emergency authority army vip passenger hov taxi bus coach delivery truck trailer motorcycle evehicle custom1 custom2" speed="22.35" length="0.10" shape="1624.23,548.58 1624.23,548.58"/>
        <lane id=":12433151700_0_3" index="3" allow="private emergency authority army vip passenger hov taxi bus coach delivery truck trailer motorcycle evehicle custom1 custom2" speed="22.35" length="0.10" shape="1626.48,546.31 1626.48,546.31"/>
    </edge>
    <edge id=":12478830104_0" function="internal">
        <lane id=":12478830104_0_0" index="0" disallow="tram rail_urban rail rail_electric rail_fast ship container cable_car subway aircraft wheelchair scooter drone" speed="6.54" length="8.91" shape="1367.77,959.63 1365.77,958.22 1363.79,957.75 1361.84,958.23 1359.90,959.67"/>
    </edge>
    <edge id=":12478830104_1" function="internal">
        <lane id=":12478830104_1_0" index="0" disallow="tram rail_urban rail rail_electric rail_fast ship container cable_car subway aircraft wheelchair scooter drone" speed="7.34" length="12.09" shape="1367.77,959.63 1364.02,956.00 1361.46,953.29 1360.09,951.50 1359.91,950.63"/>
    </edge>
    <edge id=":12478830104_2" function="internal">
        <lane id=":12478830104_2_0" index="0" disallow="tram rail_urban rail rail_electric rail_fast ship container cable_car subway aircraft wheelchair scooter drone" speed="15.58" length="6.37" shape="1364.42,955.18 1359.90,959.67"/>
        <lane id=":12478830104_2_1" index="1" disallow="tram rail_urban rail rail_electric rail_fast ship container cable_car subway aircraft wheelchair scooter drone" speed="15.58" length="6.37" shape="1362.17,952.90 1357.65,957.40"/>
    </edge>
    <edge id=":12478830104_4" function="internal">
        <lane id=":12478830104_4_0" index="0" disallow="tram rail_urban rail rail_electric rail_fast ship container cable_car subway aircraft wheelchair scooter drone" speed="15.58" length="6.38" shape="1355.39,955.13 1359.91,950.63"/>
    </edge>
    <edge id=":12595477907_0" function="internal">
        <lane id=":12595477907_0_0" index="0" disallow="tram rail_urban rail rail_electric rail_fast ship container cable_car subway aircraft wheelchair scooter drone" speed="13.89" length="8.21" shape="1706.24,804.08 1707.83,802.27 1708.63,800.78 1709.44,799.29 1711.03,797.48"/>
        <lane id=":12595477907_0_1" index="1" disallow="tram rail_urban rail rail_electric rail_fast ship container cable_car subway aircraft wheelchair scooter drone" speed="13.89" length="8.21" shape="1706.24,804.08 1708.17,802.64 1709.72,801.95 1711.27,801.27 1713.20,799.83"/>
    </edge>
    <edge id=":12595477908_0" function="internal">
        <lane id=":12595477908_0_0" index="0" disallow="tram rail_urban rail rail_electric rail_fast ship container cable_car subway aircraft wheelchair scooter drone" speed="13.89" length="8.21" shape="1674.58,836.41 1676.13,834.56 1676.90,833.05 1677.67,831.54 1679.22,829.70"/>
    </edge>
    <edge id=":1271001343_0" function="internal">
        <lane id=":1271001343_0_0" index="0" disallow="tram rail_urban rail rail_electric rail_fast ship container cable_car subway aircraft wheelchair scooter drone" speed="6.48" length="8.84" shape="605.01,1128.30 607.43,1128.36 609.31,1127.64 610.63,1126.14 611.39,1123.86"/>
    </edge>
    <edge id=":1271001343_1" function="internal">
        <lane id=":1271001343_1_0" index="0" disallow="tram rail_urban rail rail_electric rail_fast ship container cable_car subway aircraft wheelchair scooter drone" speed="8.94" length="17.36" shape="604.48,1131.45 609.60,1132.05 613.14,1132.10 616.68,1132.15 621.79,1132.77"/>
        <lane id=":1271001343_1_1" index="1" disallow="tram rail_urban rail rail_electric rail_fast ship container cable_car subway aircraft wheelchair scooter drone" speed="8.94" length="17.36" shape="603.96,1134.61 609.06,1135.21 612.60,1135.25 616.14,1135.30 621.24,1135.93"/>
        <lane id=":1271001343_1_2" index="2" disallow="tram rail_urban rail rail_electric rail_fast ship container cable_car subway aircraft wheelchair scooter drone" speed="8.94" length="17.36" shape="603.43,1137.77 608.53,1138.37 612.07,1138.41 615.60,1138.46 620.70,1139.08"/>
    </edge>
    <edge id=":1271001343_4" function="internal">
        <lane id=":1271001343_4_0" index="0" disallow="tram rail_urban rail rail_electric rail_fast ship container cable_car subway aircraft wheelchair scooter drone" speed="8.94" length="20.45" shape="609.34,1144.30 611.39,1123.86"/>
        <lane id=":1271001343_4_1" index="1" disallow="tram rail_urban rail rail_electric rail_fast ship container cable_car subway aircraft wheelchair scooter drone" speed="8.94" length="20.45" shape="612.50,1144.81 614.53,1124.49"/>
        <lane id=":1271001343_4_2" index="2" disallow="tram rail_urban rail rail_electric rail_fast ship container cable_car subway aircraft wheelchair scooter drone" speed="8.94" length="20.45" shape="612.50,1144.81 613.73,1138.98 615.00,1135.02 616.31,1131.03 617.67,1125.11"/>
    </edge>
    <edge id=":1271001343_7" function="internal">
        <lane id=":1271001343_7_0" index="0" disallow="tram rail_urban rail rail_electric rail_fast ship container cable_car subway aircraft wheelchair scooter drone" speed="7.96" length="14.11" shape="612.50,1144.81 613.67,1140.47 615.51,1137.54 618.04,1136.03 621.24,1135.93"/>
        <lane id=":1271001343_7_1" index="1" disallow="tram rail_urban rail rail_electric rail_fast ship container cable_car subway aircraft wheelchair scooter drone" speed="7.22" length="11.43" shape="612.50,1144.81 613.44,1141.85 615.12,1139.91 617.54,1138.98 620.70,1139.08"/>
    </edge>
    <edge id=":1271001348_0" function="internal">
        <lane id=":1271001348_0_0" index="0" disallow="tram rail_urban rail rail_electric rail_fast ship container cable_car subway aircraft wheelchair scooter drone" speed="6.50" length="9.03" shape="751.65,1149.32 751.59,1151.80 752.34,1153.70 753.89,1155.02 756.25,1155.77"/>
    </edge>
    <edge id=":1271001348_1" function="internal">
        <lane id=":1271001348_1_0" index="0" disallow="tram rail_urban rail rail_electric rail_fast ship container cable_car subway aircraft wheelchair scooter drone" speed="8.94" length="17.61" shape="751.65,1149.32 748.75,1166.69"/>
    </edge>
    <edge id=":1271001348_2" function="internal">
        <lane id=":1271001348_2_0" index="0" disallow="tram rail_urban rail rail_electric rail_fast ship container cable_car subway aircraft wheelchair scooter drone" speed="6.50" length="9.03" shape="742.04,1153.37 744.52,1153.44 746.42,1152.70 747.75,1151.15 748.50,1148.79"/>
    </edge>
    <edge id=":1271001348_3" function="internal">
        <lane id=":1271001348_3_0" index="0" disallow="tram rail_urban rail rail_electric rail_fast ship container cable_car subway aircraft wheelchair scooter drone" speed="8.94" length="14.42" shape="742.04,1153.37 756.25,1155.77"/>
        <lane id=":1271001348_3_1" index="1" disallow="tram rail_urban rail rail_electric rail_fast ship container cable_car subway aircraft wheelchair scooter drone" speed="8.94" length="14.42" shape="741.50,1156.53 755.73,1158.93"/>
        <lane id=":1271001348_3_2" index="2" disallow="tram rail_urban rail rail_electric rail_fast ship container cable_car subway aircraft wheelchair scooter drone" speed="8.94" length="14.42" shape="740.96,1159.68 755.20,1162.08"/>
    </edge>
    <edge id=":1271001348_6" function="internal">
        <lane id=":1271001348_6_0" index="0" disallow="tram rail_urban rail rail_electric rail_fast ship container cable_car subway aircraft wheelchair scooter drone" speed="7.35" length="11.76" shape="740.96,1159.68 744.72,1160.68 747.26,1162.18 748.61,1164.18 748.75,1166.69"/>
    </edge>
    <edge id=":1271001348_7" function="internal">
        <lane id=":1271001348_7_0" index="0" disallow="tram rail_urban rail rail_electric rail_fast ship container cable_car subway aircraft wheelchair scooter drone" speed="8.94" length="17.61" shape="745.60,1166.16 748.50,1148.79"/>
    </edge>
    <edge id=":1271001348_8" function="internal">
        <lane id=":1271001348_8_0" index="0" disallow="tram rail_urban rail rail_electric rail_fast ship container cable_car subway aircraft wheelchair scooter drone" speed="7.33" length="2.51" shape="745.60,1166.16 746.54,1163.84"/>
    </edge>
    <edge id=":1271001348_9" function="internal">
        <lane id=":1271001348_9_0" index="0" disallow="tram rail_urban rail rail_electric rail_fast ship container cable_car subway aircraft wheelchair scooter drone" speed="7.33" length="9.22" shape="746.54,1163.84 748.46,1162.38 751.34,1161.80 755.20,1162.08"/>
    </edge>
    <edge id=":1286844245_0" function="internal">
        <lane id=":1286844245_0_0" index="0" disallow="tram rail_urban rail rail_electric rail_fast ship container cable_car subway aircraft wheelchair scooter drone" speed="13.89" length="3.50" shape="1524.91,925.40 1525.42,926.23 1525.43,927.00 1525.44,927.79 1525.93,928.63"/>
    </edge>
    <edge id=":1308305528_0" function="internal">
        <lane id=":1308305528_0_0" index="0" disallow="tram rail_urban rail rail_electric rail_fast ship container cable_car subway aircraft wheelchair scooter drone" speed="11.18" length="8.52" shape="480.75,1066.22 480.60,1068.72 480.87,1070.45 481.15,1072.19 481.00,1074.69"/>
    </edge>
    <edge id=":1308305528_1" function="internal">
        <lane id=":1308305528_1_0" index="0" disallow="tram rail_urban rail rail_electric rail_fast ship container cable_car subway aircraft wheelchair scooter drone" speed="11.18" length="8.54" shape="477.60,1065.70 476.14,1074.11"/>
    </edge>
    <edge id=":1308305528_2" function="internal">
        <lane id=":1308305528_2_0" index="0" disallow="tram rail_urban rail rail_electric rail_fast ship container cable_car subway aircraft wheelchair scooter drone" speed="11.18" length="8.53" shape="472.99,1073.58 474.44,1065.17"/>
    </edge>
    <edge id=":1308305528_3" function="internal">
        <lane id=":1308305528_3_0" index="0" disallow="tram rail_urban rail rail_electric rail_fast ship container cable_car subway aircraft wheelchair scooter drone" speed="4.46" length="8.09" shape="472.99,1073.58 481.00,1074.69"/>
    </edge>
    <edge id=":1496341778_0" function="internal">
        <lane id=":1496341778_0_0" index="0" disallow="tram rail_urban rail rail_electric rail_fast ship container cable_car subway aircraft wheelchair scooter drone" speed="5.53" length="6.24" shape="1014.37,1736.27 1013.57,1736.49 1012.87,1737.43 1012.26,1739.11 1011.76,1741.51"/>
    </edge>
    <edge id=":1496341778_1" function="internal">
        <lane id=":1496341778_1_0" index="0" disallow="tram rail_urban rail rail_electric rail_fast ship container cable_car subway aircraft wheelchair scooter drone" speed="22.22" length="7.32" shape="1014.37,1736.27 1007.15,1735.06"/>
        <lane id=":1496341778_1_1" index="1" disallow="tram rail_urban rail rail_electric rail_fast ship container cable_car subway aircraft wheelchair scooter drone" speed="22.22" length="7.32" shape="1014.90,1733.11 1007.68,1731.91"/>
    </edge>
    <edge id=":1578907668_0" function="internal">
        <lane id=":1578907668_0_0" index="0" disallow="pedestrian tram rail_urban rail rail_electric rail_fast ship container cable_car subway aircraft wheelchair scooter drone" speed="6.89" length="10.26" shape="506.01,896.03 505.84,899.17 506.50,901.55 507.98,903.15 510.30,903.99"/>
    </edge>
    <edge id=":1578907668_1" function="internal">
        <lane id=":1578907668_1_0" index="0" disallow="pedestrian tram rail_urban rail rail_electric rail_fast ship container cable_car subway aircraft wheelchair scooter drone" speed="12.53" length="17.49" shape="506.01,896.03 503.13,913.28"/>
    </edge>
    <edge id=":1578907668_2" function="internal">
        <lane id=":1578907668_2_0" index="0" disallow="pedestrian tram rail_urban rail rail_electric rail_fast ship container cable_car subway aircraft wheelchair scooter drone" speed="6.50" length="9.04" shape="496.38,900.03 498.87,900.10 500.78,899.36 502.11,897.82 502.86,895.47"/>
    </edge>
    <edge id=":1578907668_3" function="internal">
        <lane id=":1578907668_3_0" index="0" disallow="tram rail_urban rail rail_electric rail_fast ship container cable_car subway aircraft wheelchair scooter drone" speed="8.94" length="14.51" shape="496.38,900.03 500.56,900.99 503.34,902.02 506.12,903.04 510.30,903.99"/>
        <lane id=":1578907668_3_1" index="1" disallow="tram rail_urban rail rail_electric rail_fast ship container cable_car subway aircraft wheelchair scooter drone" speed="8.94" length="14.51" shape="495.85,903.19 500.03,904.15 502.81,905.18 505.59,906.20 509.78,907.14"/>
    </edge>
    <edge id=":1578907668_5" function="internal">
        <lane id=":1578907668_5_0" index="0" disallow="pedestrian tram rail_urban rail rail_electric rail_fast ship container cable_car subway aircraft wheelchair scooter drone" speed="7.33" length="11.73" shape="495.32,906.35 499.08,907.33 501.64,908.82 502.98,910.80 503.13,913.28"/>
    </edge>
    <edge id=":1578907668_6" function="internal">
        <lane id=":1578907668_6_0" index="0" disallow="pedestrian tram rail_urban rail rail_electric rail_fast ship container cable_car subway aircraft wheelchair scooter drone" speed="12.53" length="17.56" shape="499.96,912.79 502.86,895.47"/>
    </edge>
    <edge id=":1578907668_7" function="internal">
        <lane id=":1578907668_7_0" index="0" disallow="pedestrian tram rail_urban rail rail_electric rail_fast ship container cable_car subway aircraft wheelchair scooter drone" speed="7.66" length="3.31" shape="499.96,912.79 501.03,909.79 501.12,909.70"/>
    </edge>
    <edge id=":1578907668_8" function="internal">
        <lane id=":1578907668_8_0" index="0" disallow="pedestrian tram rail_urban rail rail_electric rail_fast ship container cable_car subway aircraft wheelchair scooter drone" speed="7.66" length="9.56" shape="501.12,909.70 503.02,907.84 505.93,906.96 509.78,907.14"/>
    </edge>
    <edge id=":1580501212_0" function="internal">