<?xml version="1.0" encoding="UTF-8"?>

<!-- generated on 2026-06-11 19:55:35.680119 by randomTrips.py UNKNOWN
<configuration>
    <net-file value="sf.net.xml"/>
    <output-trip-file value="trips_high.trips.xml"/>
    <trip-attributes value="departLane=&quot;best&quot; departSpeed=&quot;max&quot;"/>
    <vehicle-class value="passenger"/>
    <fringe-factor value="3"/>
    <validate value="True"/>
    <end value="1200.0"/>
    <period value="0.8"/>
</configuration>
-->

<!-- generated on 2026-06-11 19:55:35 by Eclipse SUMO duarouter Version 1.20.0
<configuration xmlns:xsi="http://www.w3.org/2001/XMLSchema-instance" xsi:noNamespaceSchemaLocation="http://sumo.dlr.de/xsd/duarouterConfiguration.xsd">

    <input>
        <net-file value="sf.net.xml"/>
        <route-files value="trips_high.trips.xml"/>
    </input>

    <output>
        <output-file value="trips_high.trips.xml.tmp"/>
        <alternatives-output value="NUL"/>
        <write-trips value="true"/>
    </output>

    <time>
        <begin value="0.0"/>
        <end value="1200.0"/>
    </time>

    <report>
        <no-warnings value="true"/>
        <ignore-errors value="true"/>
        <no-step-log value="true"/>
    </report>

</configuration>
-->

<routes xmlns:xsi="http://www.w3.org/2001/XMLSchema-instance" xsi:noNamespaceSchemaLocation="http://sumo.dlr.de/xsd/routes_file.xsd">
    <vType id="passenger" vClass="passenger"/>
    <trip id="0" type="passenger" depart="0.00" departLane="best" departSpeed="max" from="417396753#0" to="-1349027889#1"/>
    <trip id="1" type="passenger" depart="0.80" departLane="best" departSpeed="max" from="-8920728#1" to="1021093206#0"/>
    <trip id="2" type="passenger" depart="1.60" departLane="best" departSpeed="max" from="619027325" to="468201424#0"/>
    <trip id="4" type="passenger" depart="3.20" departLane="best" departSpeed="max" from="225719777" to="-1453719273#2"/>
    <trip id="5" type="passenger" depart="4.00" departLane="best" departSpeed="max" from="-88559661#2" to="30832507#0"/>
    <trip id="6" type="passenger" depart="4.80" departLane="best" departSpeed="max" from="-1236509217" to="-8919076#2"/>
    <trip id="7" type="passenger" depart="5.60" departLane="best" departSpeed="max" from="425516616#1" to="397145255"/>
    <trip id="8" type="passenger" depart="6.40" departLane="best" departSpeed="max" from="-88559669#3" to="414948593#0"/>
    <trip id="9" type="passenger" depart="7.20" departLane="best" departSpeed="max" from="706527718#0" to="-1120283629#1"/>
    <trip id="10" type="passenger" depart="8.00" departLane="best" departSpeed="max" from="686153251#0" to="512984874#0"/>
    <trip id="11" type="passenger" depart="8.80" departLane="best" departSpeed="max" from="1197249028" to="-84654238#1"/>
    <trip id="13" type="passenger" depart="10.40" departLane="best" departSpeed="max" from="-287958606#4" to="-397148934#1"/>
    <trip id="14" type="passenger" depart="11.20" departLane="best" departSpeed="max" from="780006784#0" to="416878321#8"/>
    <trip id="15" type="passenger" depart="12.00" departLane="best" departSpeed="max" from="686153251#0" to="549859218#0"/>
    <trip id="16" type="passenger" depart="12.80" departLane="best" departSpeed="max" from="328876706#2" to="8922026#0"/>
    <trip id="17" type="passenger" depart="13.60" departLane="best" departSpeed="max" from="1466871688#0" to="397146707#0"/>
    <trip id="18" type="passenger" depart="14.40" departLane="best" departSpeed="max" from="737711008" to="417101710#0"/>
    <trip id="20" type="passenger" depart="16.00" departLane="best" departSpeed="max" from="513676826" to="-225518512#2"/>
    <trip id="21" type="passenger" depart="16.80" departLane="best" departSpeed="max" from="-88572877#2" to="1126161509#0"/>
    <trip id="22" type="passenger" depart="17.60" departLane="best" departSpeed="max" from="-254756526#1" to="1037057864#0"/>
    <trip id="23" type="passenger" depart="18.40" departLane="best" departSpeed="max" from="-29059461#2" to="1120283630"/>
    <trip id="24" type="passenger" depart="19.20" departLane="best" departSpeed="max" from="417101722#0" to="204884397#0"/>
    <trip id="25" type="passenger" depart="20.00" departLane="best" departSpeed="max" from="1426767839#1" to="-8920242#1"/>
    <trip id="26" type="passenger" depart="20.80" departLane="best" departSpeed="max" from="-8920077#3" to="8919020#0"/>
    <trip id="27" type="passenger" depart="21.60" departLane="best" departSpeed="max" from="425516615" to="417099335#0"/>
    <trip id="28" type="passenger" depart="22.40" departLane="best" departSpeed="max" from="-513703278#2" to="549859218#0"/>
    <trip id="29" type="passenger" depart="23.20" departLane="best" departSpeed="max" from="-47172679#2" to="224373753#0"/>
    <trip id="30" type="passenger" depart="24.00" departLane="best" departSpeed="max" from="91182062#3" to="425516616#0"/>
    <trip id="31" type="passenger" depart="24.80" departLane="best" departSpeed="max" from="397094803" to="47172305#1"/>
    <trip id="32" type="passenger" depart="25.60" departLane="best" departSpeed="max" from="772972816" to="673970959#0"/>
    <trip id="33" type="passenger" depart="26.40" departLane="best" departSpeed="max" from="-88572877#5" to="-1494651674#1"/>
    <trip id="34" type="passenger" depart="27.20" departLane="best" departSpeed="max" from="1088396022#0" to="1111450276"/>
    <trip id="35" type="passenger" depart="28.00" departLane="best" departSpeed="max" from="-850242477#6" to="8919215#0"/>
    <trip id="37" type="passenger" depart="29.60" departLane="best" departSpeed="max" from="425516635#0" to="228186482#0"/>
    <trip id="38" type="passenger" depart="30.40" departLane="best" departSpeed="max" from="8916929#0" to="27397934#0"/>
    <trip id="39" type="passenger" depart="31.20" departLane="best" departSpeed="max" from="-8920077#2" to="1051004023"/>
    <trip id="40" type="passenger" depart="32.00" departLane="best" departSpeed="max" from="397104883" to="1081219360"/>
    <trip id="41" type="passenger" depart="32.80" departLane="best" departSpeed="max" from="397148933" to="88572948#2"/>
    <trip id="42" type="passenger" depart="33.60" departLane="best" departSpeed="max" from="224199013#0" to="-945294696#1"/>
    <trip id="43" type="passenger" depart="34.40" departLane="best" departSpeed="max" from="989329938#0" to="324914568#0"/>
    <trip id="44" type="passenger" depart="35.20" departLane="best" departSpeed="max" from="-28231602#5" to="-225719777"/>
    <trip id="45" type="passenger" depart="36.00" departLane="best" departSpeed="max" from="-365566079#1" to="417264575#0"/>
    <trip id="46" type="passenger" depart="36.80" departLane="best" departSpeed="max" from="680402686" to="254756525#2"/>
    <trip id="47" type="passenger" depart="37.60" departLane="best" departSpeed="max" from="-224384019#3" to="224384019#0"/>
    <trip id="48" type="passenger" depart="38.40" departLane="best" departSpeed="max" from="981636499#0" to="397094802#0"/>
    <trip id="50" type="passenger" depart="40.00" departLane="best" departSpeed="max" from="-1120512099#2" to="513729745#0"/>
    <trip id="51" type="passenger" depart="40.80" departLane="best" departSpeed="max" from="468204140#0" to="397104884#0"/>
    <trip id="52" type="passenger" depart="41.60" departLane="best" departSpeed="max" from="-8920077#3" to="425516616#1"/>
    <trip id="53" type="passenger" depart="42.40" departLane="best" departSpeed="max" from="-365566079#1" to="256400244#0"/>
    <trip id="54" type="passenger" depart="43.20" departLane="best" departSpeed="max" from="254756521#0" to="8919925"/>
    <trip id="56" type="passenger" depart="44.80" departLane="best" departSpeed="max" from="283534317#0" to="-88572877#2"/>
    <trip id="57" type="passenger" depart="45.60" departLane="best" departSpeed="max" from="8916929#0" to="87376669#0"/>
    <trip id="58" type="passenger" depart="46.40" departLane="best" departSpeed="max" from="1041363479#0" to="425516615"/>
    <trip id="59" type="passenger" depart="47.20" departLane="best" departSpeed="max" from="408575055#0" to="-736359898"/>
    <trip id="61" type="passenger" depart="48.80" departLane="best" departSpeed="max" from="667569398#0" to="397094803"/>
    <trip id="62" type="passenger" depart="49.60" departLane="best" departSpeed="max" from="-1068493279" to="1349027889#0"/>
    <trip id="63" type="passenger" depart="50.40" departLane="best" departSpeed="max" from="-1201621437#2" to="8918369#0"/>
    <trip id="65" type="passenger" depart="52.00" departLane="best" departSpeed="max" from="1052676448" to="-254466686#1"/>
    <trip id="66" type="passenger" depart="52.80" departLane="best" departSpeed="max" from="88463831#0" to="8919606#0"/>
    <trip id="67" type="passenger" depart="53.60" departLane="best" departSpeed="max" from="-27398032#3" to="28841115#0"/>
    <trip id="68" type="passenger" depart="54.40" departLane="best" departSpeed="max" from="-225806042#1" to="620169771#3"/>
    <trip id="69" type="passenger" depart="55.20" departLane="best" departSpeed="max" from="622297792#0" to="-619979114"/>
    <trip id="70" type="passenger" depart="56.00" departLane="best" departSpeed="max" from="256400244#0" to="397146706#0"/>
    <trip id="71" type="passenger" depart="56.80" departLane="best" departSpeed="max" from="-8920077#3" to="87376672#0"/>
    <trip id="72" type="passenger" depart="57.60" departLane="best" departSpeed="max" from="225806041" to="-8921325"/>
    <trip id="73" type="passenger" depart="58.40" departLane="best" departSpeed="max" from="329596844#0" to="581126715#0"/>
    <trip id="74" type="passenger" depart="59.20" departLane="best" departSpeed="max" from="-721174653#1" to="1305214853#0"/>
    <trip id="75" type="passenger" depart="60.00" departLane="best" departSpeed="max" from="981636498#0" to="425516640#0"/>
    <trip id="76" type="passenger" depart="60.80" departLane="best" departSpeed="max" from="254299117#1" to="329596844#3"/>
    <trip id="77" type="passenger" depart="61.60" departLane="best" departSpeed="max" from="-397146712#1" to="1030276071"/>
    <trip id="78" type="passenger" depart="62.40" departLane="best" departSpeed="max" from="1126161509#0" to="414948593#0"/>
    <trip id="80" type="passenger" depart="64.00" departLane="best" departSpeed="max" from="-228186482#1" to="417400728#0"/>
    <trip id="81" type="passenger" depart="64.80" departLane="best" departSpeed="max" from="-88572877#5" to="88597575#0"/>
    <trip id="82" type="passenger" depart="65.60" departLane="best" departSpeed="max" from="850162147#0" to="-28843496"/>
    <trip id="83" type="passenger" depart="66.40" departLane="best" departSpeed="max" from="-88597577#2" to="467979192"/>
    <trip id="84" type="passenger" depart="67.20" departLane="best" departSpeed="max" from="-87376682#2" to="-673997067"/>
    <trip id="85" type="passenger" depart="68.00" departLane="best" departSpeed="max" from="8919020#1" to="397269730#0"/>
    <trip id="86" type="passenger" depart="68.80" departLane="best" departSpeed="max" from="255168046#0" to="677165867"/>
    <trip id="87" type="passenger" depart="69.60" departLane="best" departSpeed="max" from="686153251#0" to="-8918841#2"/>
    <trip id="88" type="passenger" depart="70.40" departLane="best" departSpeed="max" from="-28843496" to="254971069#0"/>
    <trip id="89" type="passenger" depart="71.20" departLane="best" departSpeed="max" from="225806042#0" to="27772070"/>
    <trip id="90" type="passenger" depart="72.00" departLane="best" departSpeed="max" from="514675663" to="468201422#0"/>
    <trip id="91" type="passenger" depart="72.80" departLane="best" departSpeed="max" from="91181770#2" to="-406580281#1"/>
    <trip id="92" type="passenger" depart="73.60" departLane="best" departSpeed="max" from="224199018#8" to="144489134#0"/>
    <trip id="94" type="passenger" depart="75.20" departLane="best" departSpeed="max" from="-680402685#1" to="26769842#0"/>
    <trip id="95" type="passenger" depart="76.00" departLane="best" departSpeed="max" from="225719777" to="1120283630"/>
    <trip id="96" type="passenger" depart="76.80" departLane="best" departSpeed="max" from="-8918381#1" to="8918016"/>
    <trip id="97" type="passenger" depart="77.60" departLane="best" departSpeed="max" from="254396709#2" to="850242478#2"/>
    <trip id="98" type="passenger" depart="78.40" departLane="best" departSpeed="max" from="377646101#0" to="-225806043#1"/>
    <trip id="99" type="passenger" depart="79.20" departLane="best" departSpeed="max" from="99231475#0" to="772972818"/>
    <trip id="100" type="passenger" depart="80.00" departLane="best" departSpeed="max" from="8922026#0" to="8918369#0"/>
    <trip id="101" type="passenger" depart="80.80" departLane="best" departSpeed="max" from="781122181#0" to="-87376695#2"/>
    <trip id="102" type="passenger" depart="81.60" departLane="best" departSpeed="max" from="27054196#0" to="-8921325"/>
    <trip id="103" type="passenger" depart="82.40" departLane="best" departSpeed="max" from="224199018#0" to="-254466686#4"/>
    <trip id="104" type="passenger" depart="83.20" departLane="best" departSpeed="max" from="1466871688#0" to="91181774#0"/>
    <trip id="105" type="passenger" depart="84.00" departLane="best" departSpeed="max" from="-8920077#3" to="677165867"/>
    <trip id="106" type="passenger" depart="84.80" departLane="best" departSpeed="max" from="254756525#0" to="254756525#3"/>
    <trip id="108" type="passenger" depart="86.40" departLane="best" departSpeed="max" from="397094802#0" to="513707467"/>
    <trip id="109" type="passenger" depart="87.20" departLane="best" departSpeed="max" from="-468205097#1" to="120256350#0"/>
    <trip id="110" type="passenger" depart="88.00" departLane="best" departSpeed="max" from="8921866" to="406944761#0"/>
    <trip id="111" type="passenger" depart="88.80" departLane="best" departSpeed="max" from="35675861#0" to="619979111#0"/>
    <trip id="112" type="passenger" depart="89.60" departLane="best" departSpeed="max" from="-204884387#1" to="408572570"/>
    <trip id="113" type="passenger" depart="90.40" departLane="best" departSpeed="max" from="283537644" to="850162150#0"/>
    <trip id="114" type="passenger" depart="91.20" departLane="best" departSpeed="max" from="-47172306#4" to="8920242#1"/>
    <trip id="115" type="passenger" depart="92.00" departLane="best" departSpeed="max" from="-254971056#3" to="-88597577#2"/>
    <trip id="116" type="passenger" depart="92.80" departLane="best" departSpeed="max" from="397269728#0" to="468201422#1"/>
    <trip id="117" type="passenger" depart="93.60" departLane="best" departSpeed="max" from="-88572970#1" to="-513703884#4"/>
    <trip id="118" type="passenger" depart="94.40" departLane="best" departSpeed="max" from="88572881#0" to="1051004023"/>
    <trip id="119" type="passenger" depart="95.20" departLane="best" departSpeed="max" from="397269728#0" to="417101710#0"/>
    <trip id="120" type="passenger" depart="96.00" departLane="best" departSpeed="max" from="225432462#0" to="406946351#0"/>
    <trip id="121" type="passenger" depart="96.80" departLane="best" departSpeed="max" from="28843615#3" to="8918656#0"/>
    <trip id="122" type="passenger" depart="97.60" departLane="best" departSpeed="max" from="-736359898" to="513703884#0"/>
    <trip id="123" type="passenger" depart="98.40" departLane="best" departSpeed="max" from="-8916375#2" to="228186482#0"/>
    <trip id="124" type="passenger" depart="99.20" departLane="best" departSpeed="max" from="443021969#0" to="121785555"/>
    <trip id="125" type="passenger" depart="100.00" departLane="best" departSpeed="max" from="1110470601#0" to="619979114"/>
    <trip id="126" type="passenger" depart="100.80" departLane="best" departSpeed="max" from="-228196396#1" to="27397934#0"/>
    <trip id="127" type="passenger" depart="101.60" departLane="best" departSpeed="max" from="99231463" to="981636499#0"/>
    <trip id="128" type="passenger" depart="102.40" departLane="best" departSpeed="max" from="-228201785#2" to="-8921325"/>
    <trip id="129" type="passenger" depart="103.20" departLane="best" departSpeed="max" from="-8920077#3" to="8918381#1"/>
    <trip id="130" type="passenger" depart="104.00" departLane="best" departSpeed="max" from="88559680#0" to="88559669#0"/>
    <trip id="131" type="passenger" depart="104.80" departLane="best" departSpeed="max" from="1426767839#1" to="-850242477#10"/>
    <trip id="132" type="passenger" depart="105.60" departLane="best" departSpeed="max" from="746808396" to="513676822#0"/>
    <trip id="133" type="passenger" depart="106.40" departLane="best" departSpeed="max" from="414948593#0" to="91182060#0"/>
    <trip id="134" type="passenger" depart="107.20" departLane="best" departSpeed="max" from="425516632#0" to="-1120512099#2"/>
    <trip id="135" type="passenger" depart="108.00" departLane="best" departSpeed="max" from="721174654" to="121785555"/>
    <trip id="136" type="passenger" depart="108.80" departLane="best" departSpeed="max" from="425516647#0" to="8919119#0"/>
    <trip id="137" type="passenger" depart="109.60" departLane="best" departSpeed="max" from="-414948593#4" to="-47172320#3"/>
    <trip id="138" type="passenger" depart="110.40" departLane="best" departSpeed="max" from="-328876706#4" to="397146708#0"/>
    <trip id="140" type="passenger" depart="112.00" departLane="best" departSpeed="max" from="513707464#0" to="-8919616#1"/>
    <trip id="141" type="passenger" depart="112.80" departLane="best" departSpeed="max" from="417101716#0" to="1088396022#0"/>
    <trip id="142" type="passenger" depart="113.60" departLane="best" departSpeed="max" from="27054209#0" to="88597575#0"/>
    <trip id="143" type="passenger" depart="114.40" departLane="best" departSpeed="max" from="779123577#0" to="-397146712#1"/>
    <trip id="144" type="passenger" depart="115.20" departLane="best" departSpeed="max" from="225806042#0" to="1120134470#0"/>
    <trip id="145" type="passenger" depart="116.00" departLane="best" departSpeed="max" from="-1068493280" to="650378689#0"/>
    <trip id="146" type="passenger" depart="116.80" departLane="best" departSpeed="max" from="417166165#0" to="1081219360"/>
    <trip id="147" type="passenger" depart="117.60" departLane="best" departSpeed="max" from="619378866#0" to="397146707#0"/>
    <trip id="148" type="passenger" depart="118.40" departLane="best" departSpeed="max" from="228196396#0" to="-1122010074#1"/>
    <trip id="149" type="passenger" depart="119.20" departLane="best" departSpeed="max" from="-254396709#1" to="88559680#5"/>
    <trip id="150" type="passenger" depart="120.00" departLane="best" departSpeed="max" from="88597577#0" to="397145255"/>
    <trip id="151" type="passenger" depart="120.80" departLane="best" departSpeed="max" from="746808396" to="406944780"/>
    <trip id="152" type="passenger" depart="121.60" departLane="best" departSpeed="max" from="-425624293#1" to="-619979111#1"/>
    <trip id="153" type="passenger" depart="122.40" departLane="best" departSpeed="max" from="1053833922" to="88572948#3"/>
    <trip id="154" type="passenger" depart="123.20" departLane="best" departSpeed="max" from="680955153" to="850242478#2"/>
    <trip id="155" type="passenger" depart="124.00" departLane="best" departSpeed="max" from="88572970#0" to="-8920726#1"/>
    <trip id="156" type="passenger" depart="124.80" departLane="best" departSpeed="max" from="-8918381#1" to="-416878315#1"/>
    <trip id="157" type="passenger" depart="125.60" departLane="best" departSpeed="max" from="667824727#0" to="88559691"/>
    <trip id="158" type="passenger" depart="126.40" departLane="best" departSpeed="max" from="224316513#0" to="417101714#0"/>
    <trip id="159" type="passenger" depart="127.20" departLane="best" departSpeed="max" from="-468205097#1" to="8918381#0"/>
    <trip id="160" type="passenger" depart="128.00" departLane="best" departSpeed="max" from="850162154" to="8922858#0"/>
    <trip id="161" type="passenger" depart="128.80" departLane="best" departSpeed="max" from="706527718#0" to="88559680#1"/>
    <trip id="162" type="passenger" depart="129.60" departLane="best" departSpeed="max" from="-121785555" to="619378866#0"/>
    <trip id="163" type="passenger" depart="130.40" departLane="best" departSpeed="max" from="1122010074#0" to="8918381#1"/>
    <trip id="164" type="passenger" depart="131.20" departLane="best" departSpeed="max" from="682727088#0" to="85789166#0"/>
    <trip id="165" type="passenger" depart="132.00" departLane="best" departSpeed="max" from="706527718#0" to="1111450276"/>
    <trip id="166" type="passenger" depart="132.80" departLane="best" departSpeed="max" from="674757887#0" to="-417396753#1"/>
    <trip id="167" type="passenger" depart="133.60" departLane="best" departSpeed="max" from="87376660#0" to="850242477#1"/>
    <trip id="168" type="passenger" depart="134.40" departLane="best" departSpeed="max" from="-88559680#2" to="736359898"/>
    <trip id="170" type="passenger" depart="136.00" departLane="best" departSpeed="max" from="680820472" to="1030276936#0"/>
    <trip id="171" type="passenger" depart="136.80" departLane="best" departSpeed="max" from="-121785555" to="-8919053#2"/>
    <trip id="172" type="passenger" depart="137.60" departLane="best" departSpeed="max" from="1120283629#0" to="85789166#0"/>
    <trip id="173" type="passenger" depart="138.40" departLane="best" departSpeed="max" from="8921325" to="1120512099#0"/>
    <trip id="174" type="passenger" depart="139.20" departLane="best" departSpeed="max" from="417400734#0" to="242940298"/>
    <trip id="175" type="passenger" depart="140.00" departLane="best" departSpeed="max" from="89782522#0" to="397104880"/>
    <trip id="176" type="passenger" depart="140.80" departLane="best" departSpeed="max" from="8919076#0" to="-47172320#3"/>
    <trip id="178" type="passenger" depart="142.40" departLane="best" departSpeed="max" from="8920734#0" to="1110470601#0"/>
    <trip id="179" type="passenger" depart="143.20" departLane="best" departSpeed="max" from="-364480069#1" to="256400244#0"/>
    <trip id="180" type="passenger" depart="144.00" departLane="best" departSpeed="max" from="514675663" to="133733593#0"/>
    <trip id="181" type="passenger" depart="144.80" departLane="best" departSpeed="max" from="406946351#0" to="328876706#0"/>
    <trip id="182" type="passenger" depart="145.60" departLane="best" departSpeed="max" from="160325571#0" to="406581247#0"/>
    <trip id="183" type="passenger" depart="146.40" departLane="best" departSpeed="max" from="-8919119#1" to="513701212#0"/>
    <trip id="184" type="passenger" depart="147.20" departLane="best" departSpeed="max" from="-1068493280" to="8918016"/>
    <trip id="185" type="passenger" depart="148.00" departLane="best" departSpeed="max" from="32931798#0" to="513707472#0"/>
    <trip id="186" type="passenger" depart="148.80" departLane="best" departSpeed="max" from="619590730#0" to="468201421"/>
    <trip id="187" type="passenger" depart="149.60" departLane="best" departSpeed="max" from="1378950381" to="-28841115#8"/>
    <trip id="188" type="passenger" depart="150.40" departLane="best" departSpeed="max" from="425516648#0" to="135110259#0"/>
    <trip id="190" type="passenger" depart="152.00" departLane="best" departSpeed="max" from="513707467" to="121785555"/>
    <trip id="191" type="passenger" depart="152.80" departLane="best" departSpeed="max" from="1053833922" to="254299117#1"/>
    <trip id="192" type="passenger" depart="153.60" departLane="best" departSpeed="max" from="224199018#5" to="120256350#0"/>
    <trip id="193" type="passenger" depart="154.40" departLane="best" departSpeed="max" from="-397153598#1" to="254756521#0"/>
    <trip id="194" type="passenger" depart="155.20" departLane="best" departSpeed="max" from="8919076#0" to="468201424#0"/>
    <trip id="195" type="passenger" depart="156.00" departLane="best" departSpeed="max" from="88597575#0" to="417101702#0"/>
    <trip id="196" type="passenger" depart="156.80" departLane="best" departSpeed="max" from="1041363480" to="397145820#0"/>
    <trip id="197" type="passenger" depart="157.60" departLane="best" departSpeed="max" from="-1068493279" to="1122562272"/>
    <trip id="198" type="passenger" depart="158.40" departLane="best" departSpeed="max" from="24245395#0" to="406944764#0"/>
    <trip id="199" type="passenger" depart="159.20" departLane="best" departSpeed="max" from="425516632#3" to="27571801#0"/>
    <trip id="200" type="passenger" depart="160.00" departLane="best" departSpeed="max" from="254396709#0" to="-8921325"/>
    <trip id="201" type="passenger" depart="160.80" departLane="best" departSpeed="max" from="255168046#0" to="88572970#0"/>
    <trip id="202" type="passenger" depart="161.60" departLane="best" departSpeed="max" from="680955153" to="-88559661#2"/>
    <trip id="203" type="passenger" depart="162.40" departLane="best" departSpeed="max" from="-27398032#3" to="32931798#0"/>
    <trip id="204" type="passenger" depart="163.20" departLane="best" departSpeed="max" from="417101712#0" to="136409580#1"/>
    <trip id="205" type="passenger" depart="164.00" departLane="best" departSpeed="max" from="721674320#0" to="619979114"/>
    <trip id="206" type="passenger" depart="164.80" departLane="best" departSpeed="max" from="461084154#0" to="1030276071"/>
    <trip id="207" type="passenger" depart="165.60" departLane="best" departSpeed="max" from="-682814468#1" to="-1349027888#3"/>
    <trip id="208" type="passenger" depart="166.40" departLane="best" departSpeed="max" from="-8918369#1" to="283512618#0"/>
    <trip id="209" type="passenger" depart="167.20" departLane="best" departSpeed="max" from="792350776" to="-28843615#4"/>
    <trip id="210" type="passenger" depart="168.00" departLane="best" departSpeed="max" from="224384018#0" to="417396753#0"/>
    <trip id="211" type="passenger" depart="168.80" departLane="best" departSpeed="max" from="-681183503" to="48211230#0"/>
    <trip id="212" type="passenger" depart="169.60" departLane="best" departSpeed="max" from="27398048#2" to="1050251486#0"/>
    <trip id="213" type="passenger" depart="170.40" departLane="best" departSpeed="max" from="425516635#0" to="-111560682#2"/>
    <trip id="214" type="passenger" depart="171.20" departLane="best" departSpeed="max" from="619979112#0" to="633791726"/>
    <trip id="215" type="passenger" depart="172.00" departLane="best" departSpeed="max" from="-328876706#4" to="254756526#0"/>
    <trip id="216" type="passenger" depart="172.80" departLane="best" departSpeed="max" from="-514170580#1" to="8920077#3"/>
    <trip id="218" type="passenger" depart="174.40" departLane="best" departSpeed="max" from="-8918381#1" to="850162147#0"/>
    <trip id="219" type="passenger" depart="175.20" departLane="best" departSpeed="max" from="254756525#2" to="682814468#0"/>
    <trip id="220" type="passenger" depart="176.00" departLane="best" departSpeed="max" from="425516652#0" to="91182062#0"/>
    <trip id="221" type="passenger" depart="176.80" departLane="best" departSpeed="max" from="397269729" to="8919887"/>
    <trip id="222" type="passenger" depart="177.60" departLane="best" departSpeed="max" from="88572895#0" to="417099350"/>
    <trip id="223" type="passenger" depart="178.40" departLane="best" departSpeed="max" from="513707464#0" to="30832507#0"/>
    <trip id="224" type="passenger" depart="179.20" departLane="best" departSpeed="max" from="737711009" to="397145820#0"/>
    <trip id="225" type="passenger" depart="180.00" departLane="best" departSpeed="max" from="88572965#0" to="619979107"/>
    <trip id="226" type="passenger" depart="180.80" departLane="best" departSpeed="max" from="256400244#0" to="1081219359#0"/>
    <trip id="228" type="passenger" depart="182.40" departLane="best" departSpeed="max" from="622297792#0" to="364480069#0"/>
    <trip id="229" type="passenger" depart="183.20" departLane="best" departSpeed="max" from="417101701#0" to="111586257#0"/>
    <trip id="230" type="passenger" depart="184.00" departLane="best" departSpeed="max" from="-254466686#1" to="1122562271"/>
    <trip id="232" type="passenger" depart="185.60" departLane="best" departSpeed="max" from="329596844#3" to="-680955153"/>
    <trip id="233" type="passenger" depart="186.40" departLane="best" departSpeed="max" from="-88572932#4" to="47172679#0"/>
    <trip id="234" type="passenger" depart="187.20" departLane="best" departSpeed="max" from="513701211#0" to="-256400251#2"/>
    <trip id="235" type="passenger" depart="188.00" departLane="best" departSpeed="max" from="224316514#0" to="397144265#0"/>
    <trip id="236" type="passenger" depart="188.80" departLane="best" departSpeed="max" from="224384020#0" to="-8920238#1"/>
    <trip id="237" type="passenger" depart="189.60" departLane="best" departSpeed="max" from="225432462#0" to="88597563#0"/>
    <trip id="238" type="passenger" depart="190.40" departLane="best" departSpeed="max" from="397148932#0" to="48211230#0"/>
    <trip id="239" type="passenger" depart="191.20" departLane="best" departSpeed="max" from="850158700#0" to="627329159#0"/>
    <trip id="240" type="passenger" depart="192.00" departLane="best" departSpeed="max" from="1483073238#0" to="-1120283629#1"/>
    <trip id="241" type="passenger" depart="192.80" departLane="best" departSpeed="max" from="133733593#0" to="619979116#0"/>
    <trip id="242" type="passenger" depart="193.60" departLane="best" departSpeed="max" from="850156333#0" to="8919925"/>
    <trip id="243" type="passenger" depart="194.40" departLane="best" departSpeed="max" from="225432457#0" to="619979110#0"/>
    <trip id="244" type="passenger" depart="195.20" departLane="best" departSpeed="max" from="359898157#0" to="416878321#8"/>
    <trip id="245" type="passenger" depart="196.00" departLane="best" departSpeed="max" from="-88559669#3" to="-945294696#1"/>
    <trip id="246" type="passenger" depart="196.80" departLane="best" departSpeed="max" from="254297759#0" to="-1453719273#2"/>
    <trip id="247" type="passenger" depart="197.60" departLane="best" departSpeed="max" from="1126161508#0" to="468204140#0"/>